@<TRIPOS>MOLECULE
RRC
   52    54     1     0     0
SMALL
bcc


@<TRIPOS>ATOM
      1 OAP         57.5260    30.7120    29.6960 oh      1293 RRC      -0.601800
      2 CAQ         58.5430    30.4700    30.6370 c3      1293 RRC       0.109400
      3 CAR         59.7790    30.0060    29.8600 c3      1293 RRC       0.175500
      4 CAK         60.9360    29.9110    30.8560 c3      1293 RRC      -0.083400
      5 CAI         61.5400    28.5300    31.0020 c3      1293 RRC      -0.092100
      6 NAS         59.3650    28.7200    29.3170 nh      1293 RRC      -0.824900
      7 CAT         59.1540    28.4240    28.0090 ca      1293 RRC       0.914900
      8 NAU         58.7540    27.1700    27.6870 nb      1293 RRC      -0.789000
      9 CAV         58.5380    26.8490    26.4000 ca      1293 RRC       0.493800
     10 NAW         58.1300    25.6970    25.9200 na      1293 RRC      -0.269000
     11 CAZ         57.8910    24.6280    26.9030 c3      1293 RRC       0.057000
     12 CAY         56.3900    24.3410    26.8940 c3      1293 RRC      -0.111100
     13 CBA         58.8760    23.5100    26.6870 c3      1293 RRC      -0.111100
     14 CAX         58.0350    25.8320    24.5670 cc      1293 RRC       0.396700
     15 CAN         58.7260    27.7150    25.3830 ca      1293 RRC      -0.255200
     16 NAO         58.4500    27.0880    24.1650 nd      1293 RRC      -0.537100
     17 NAL         59.3420    29.3060    27.0100 nb      1293 RRC      -0.838000
     18 CAM         59.1360    28.9930    25.7240 ca      1293 RRC       0.769200
     19 NAJ         59.2820    29.8860    24.7360 nh      1293 RRC      -0.825900
     20 CAD         59.3710    31.3210    24.9960 c3      1293 RRC       0.246100
     21 CAE         60.7840    31.8420    25.1170 ca      1293 RRC      -0.131300
     22 CAG         61.1160    32.7270    26.1490 ca      1293 RRC      -0.110500
     23 CAH         62.4230    33.2180    26.2560 ca      1293 RRC      -0.133000
     24 CAF         63.3890    32.8540    25.3140 ca      1293 RRC      -0.121000
     25 CAC         63.0520    31.9900    24.2700 ca      1293 RRC      -0.133000
     26 CAB         61.7520    31.4840    24.1730 ca      1293 RRC      -0.110500
     27 HBA3        58.7690    23.1530    25.7920 hc      1293 RRC       0.047200
     28 HBA2        59.7790    23.8490    26.7940 hc      1293 RRC       0.047200
     29 HBA1        58.7160    22.8070    27.3360 hc      1293 RRC       0.047200
     30 HAY3        55.9050    25.1450    27.1370 hc      1293 RRC       0.047200
     31 HAY2        56.1200    24.0570    26.0070 hc      1293 RRC       0.047200
     32 HAY1        56.1910    23.6380    27.5320 hc      1293 RRC       0.047200
     33 HAQ2        58.7390    31.2740    31.1430 h1      1293 RRC       0.048700
     34 HAQ1        58.2660    29.7940    31.2740 h1      1293 RRC       0.048700
     35 HAK2        61.6330    30.5270    30.5820 hc      1293 RRC       0.048700
     36 HAK1        60.6220    30.2060    31.7250 hc      1293 RRC       0.048700
     37 HAI3        60.8590    27.9090    31.3060 hc      1293 RRC       0.038033
     38 HAI2        61.8860    28.2360    30.1450 hc      1293 RRC       0.038033
     39 HAI1        62.2620    28.5590    31.6490 hc      1293 RRC       0.038033
     40 HAD2        58.9210    31.7980    24.2810 h1      1293 RRC       0.067200
     41 HAD1        58.8920    31.5210    25.8150 h1      1293 RRC       0.067200
     42 HAZ         58.0780    24.8590    27.8260 h1      1293 RRC       0.090700
     43 HAX         57.7180    25.1390    23.9660 h5      1293 RRC       0.069800
     44 HAS         59.2420    28.0840    29.8820 hn      1293 RRC       0.424800
     45 HAR         60.0830    30.5890    29.1470 h1      1293 RRC       0.083700
     46 HAP         56.8310    30.9680    30.0930 ho      1293 RRC       0.413000
     47 HAJ         59.3250    29.6060    23.9240 hn      1293 RRC       0.436800
     48 HAH         62.6580    33.8120    26.9860 ha      1293 RRC       0.132500
     49 HAG         60.4410    33.0000    26.7900 ha      1293 RRC       0.137000
     50 HAF         64.2920    33.2010    25.3850 ha      1293 RRC       0.131000
     51 HAC         63.7200    31.7410    23.6120 ha      1293 RRC       0.132500
     52 HAB         61.5210    30.8820    23.4480 ha      1293 RRC       0.137000
@<TRIPOS>BOND
     1     1     2 1   
     2     1    46 1   
     3     2     3 1   
     4     2    33 1   
     5     2    34 1   
     6     3     4 1   
     7     3     6 1   
     8     3    45 1   
     9     4     5 1   
    10     4    35 1   
    11     4    36 1   
    12     5    37 1   
    13     5    38 1   
    14     5    39 1   
    15     6     7 1   
    16     6    44 1   
    17     7     8 ar  
    18     7    17 ar  
    19     8     9 ar  
    20     9    10 1   
    21     9    15 ar  
    22    10    11 1   
    23    10    14 1   
    24    11    12 1   
    25    11    13 1   
    26    11    42 1   
    27    12    30 1   
    28    12    31 1   
    29    12    32 1   
    30    13    27 1   
    31    13    28 1   
    32    13    29 1   
    33    14    16 2   
    34    14    43 1   
    35    15    16 1   
    36    15    18 ar  
    37    17    18 ar  
    38    18    19 1   
    39    19    20 1   
    40    19    47 1   
    41    20    21 1   
    42    20    40 1   
    43    20    41 1   
    44    21    22 ar  
    45    21    26 ar  
    46    22    23 ar  
    47    22    49 1   
    48    23    24 ar  
    49    23    48 1   
    50    24    25 ar  
    51    24    50 1   
    52    25    26 ar  
    53    25    51 1   
    54    26    52 1   
@<TRIPOS>SUBSTRUCTURE
     1 RRC         1 TEMP              0 ****  ****    0 ROOT
